/*--------------------------------*- C++ -*----------------------------------*\
  =========                 |
  \\      /  F ield         | OpenFOAM: The Open Source CFD Toolbox
   \\    /   O peration     | Website:  https://openfoam.org
    \\  /    A nd           | Version:  6
     \\/     M anipulation  |
\*---------------------------------------------------------------------------*/
FoamFile
{
    version     2.0;
    format      binary;
    class       dictionary;
    location    "constant";
    object      turbulenceProperties;
}
// * * * * * * * * * * * * * * * * * * * * * * * * * * * * * * * * * * * * * //

simulationType  RAS;

LES
{
    LESModel Smagorinsky;

    turbulence      on;
    printCoeffs     on;

    delta           cubeRootVol;

    cubeRootVolCoeffs
    {
    }
}

RAS
{
    RASModel        kEpsilon;

    turbulence      on;

    printCoeffs     on;
}


// ************************************************************************* //
